4 
Frame 0 
Ar    1.000000    0.000000    0.000000 
Ar    0.000000    1.000000    0.000000 
Ar   -1.000000    0.000000    0.000000 
Ar    0.000000   -1.000000    0.000000 
4 
Frame 100 
Ar    0.954003   15.000000    0.000000 
Ar   15.000000    0.954003    0.000000 
Ar   14.045997   15.000000    0.000000 
Ar   15.000000   14.045997    0.000000 
4 
Frame 200 
Ar    0.793709    0.000000    0.000000 
Ar    0.000000    0.793709    0.000000 
Ar   14.206291    0.000000    0.000000 
Ar    0.000000   14.206291    0.000000 
4 
Frame 300 
Ar    0.803675    0.000000    0.000000 
Ar    0.000000    0.803675    0.000000 
Ar   14.196325    0.000000    0.000000 
Ar    0.000000   14.196325    0.000000 
4 
Frame 400 
Ar    0.975705    0.000000    0.000000 
Ar    0.000000    0.975705    0.000000 
Ar   14.024295    0.000000    0.000000 
Ar    0.000000   14.024295    0.000000 
4 
Frame 500 
Ar    1.042770    0.000000    0.000000 
Ar    0.000000    1.042770    0.000000 
Ar   13.957230    0.000000    0.000000 
Ar    0.000000   13.957230    0.000000 
4 
Frame 600 
Ar    1.037103    0.000000    0.000000 
Ar    0.000000    1.037103    0.000000 
Ar   13.962897    0.000000    0.000000 
Ar    0.000000   13.962897    0.000000 
4 
Frame 700 
Ar    0.956385    0.000000    0.000000 
Ar    0.000000    0.956385    0.000000 
Ar   14.043615    0.000000    0.000000 
Ar    0.000000   14.043615    0.000000 
4 
Frame 800 
Ar    0.766182    0.000000    0.000000 
Ar    0.000000    0.766182    0.000000 
Ar   14.233818    0.000000    0.000000 
Ar    0.000000   14.233818    0.000000 
4 
Frame 900 
Ar    0.839412    0.000000    0.000000 
Ar    0.000000    0.839412    0.000000 
Ar   14.160588    0.000000    0.000000 
Ar    0.000000   14.160588    0.000000 
4 
Frame 1000 
Ar    1.012811    0.000000    0.000000 
Ar    0.000000    1.012811    0.000000 
Ar   13.987189    0.000000    0.000000 
Ar    0.000000   13.987189    0.000000 
4 
Frame 1100 
Ar    1.097865    0.000000    0.000000 
Ar    0.000000    1.097865    0.000000 
Ar   13.902135    0.000000    0.000000 
Ar    0.000000   13.902135    0.000000 
4 
Frame 1200 
Ar    1.130777    0.000000    0.000000 
Ar    0.000000    1.130777    0.000000 
Ar   13.869223    0.000000    0.000000 
Ar    0.000000   13.869223    0.000000 
4 
Frame 1300 
Ar    1.121927    0.000000    0.000000 
Ar    0.000000    1.121927    0.000000 
Ar   13.878073    0.000000    0.000000 
Ar    0.000000   13.878073    0.000000 
4 
Frame 1400 
Ar    1.068896    0.000000    0.000000 
Ar    0.000000    1.068896    0.000000 
Ar   13.931104    0.000000    0.000000 
Ar    0.000000   13.931104    0.000000 
4 
Frame 1500 
Ar    0.953434   15.000000    0.000000 
Ar   15.000000    0.953434    0.000000 
Ar   14.046566   15.000000    0.000000 
Ar   15.000000   14.046566    0.000000 
4 
Frame 1600 
Ar    0.735663   15.000000    0.000000 
Ar   15.000000    0.735663    0.000000 
Ar   14.264337   15.000000    0.000000 
Ar   15.000000   14.264337    0.000000 
4 
Frame 1700 
Ar    0.879472    0.000000    0.000000 
Ar    0.000000    0.879472    0.000000 
Ar   14.120528    0.000000    0.000000 
Ar    0.000000   14.120528    0.000000 
4 
Frame 1800 
Ar    1.057952    0.000000    0.000000 
Ar    0.000000    1.057952    0.000000 
Ar   13.942048    0.000000    0.000000 
Ar    0.000000   13.942048    0.000000 
4 
Frame 1900 
Ar    1.167036   15.000000    0.000000 
Ar    0.000000    1.167036    0.000000 
Ar   13.832964   15.000000    0.000000 
Ar   15.000000   13.832964    0.000000 
4 
Frame 2000 
Ar    1.242072   15.000000    0.000000 
Ar   15.000000    1.242072    0.000000 
Ar   13.757928   15.000000    0.000000 
Ar   15.000000   13.757928    0.000000 
4 
Frame 2100 
Ar    1.296730   15.000000    0.000000 
Ar   15.000000    1.296730    0.000000 
Ar   13.703270   15.000000    0.000000 
Ar   15.000000   13.703270    0.000000 
4 
Frame 2200 
Ar    1.337570   15.000000    0.000000 
Ar   15.000000    1.337570    0.000000 
Ar   13.662430   15.000000    0.000000 
Ar   15.000000   13.662430    0.000000 
4 
Frame 2300 
Ar    1.368220   15.000000    0.000000 
Ar   15.000000    1.368220    0.000000 
Ar   13.631780   15.000000    0.000000 
Ar   15.000000   13.631780    0.000000 
4 
Frame 2400 
Ar    1.390873   15.000000    0.000000 
Ar   15.000000    1.390873    0.000000 
Ar   13.609127   15.000000    0.000000 
Ar   15.000000   13.609127    0.000000 
4 
Frame 2500 
Ar    1.406904   15.000000    0.000000 
Ar   15.000000    1.406904    0.000000 
Ar   13.593096   15.000000    0.000000 
Ar   15.000000   13.593096    0.000000 
