4
Frame 0 
AR     0.000000     0.000000     0.000000
AR     0.850000     0.850000     0.000000
AR     0.850000     0.000000     0.850000
AR     0.000000     0.850000     0.850000
4
Frame 10 
AR    -0.069033    -0.032652     0.013596
AR     1.221751     0.976530     0.359061
AR     0.989406    -0.264037     0.880539
AR    -0.171926     0.745774     0.858194
4
Frame 20 
AR    -0.135588    -0.061996     0.029827
AR     1.590347     1.100628     0.721139
AR     1.126328    -0.526015     0.908574
AR    -0.340692     0.638612     0.863240
4
Frame 30 
AR    -0.201855    -0.087549     0.051621
AR     1.957161     1.222515     1.084124
AR     1.261779    -0.785496     0.934934
AR    -0.506493     0.527374     0.863491
4
Frame 40 
AR    -0.272894    -0.105571     0.084908
AR     2.323662     1.343878     1.447131
AR     1.396677    -1.044194     0.960888
AR    -0.666656     0.408345     0.852633
4
Frame 50 
AR    -0.395817    -0.074417     0.201069
AR     2.690202     1.465193     1.810145
AR     1.531354    -1.302680     0.986732
AR    -0.774753     0.239978     0.759003
