256
Comments for frame 301
Ar     7.492061     7.712029     3.867862     0.183212     0.129535    -2.309646
Ar     8.619801     6.871253     7.464722    -0.179777     0.340060     1.426941
Ar     8.674764     8.113165     8.233388     0.220283     1.104761     0.232175
Ar     7.232470     6.703628     7.379810     0.026984    -0.650551    -0.482579
Ar     7.245138     3.089493     9.051369    -0.125462    -2.973765    -0.172032
Ar     6.409962     7.617987     9.163910    -1.429953     0.039761     0.646864
Ar     7.509937     7.493528     9.637407     0.458717     0.020836    -0.814947
Ar     7.985954     7.431980    11.094568     0.829479    -0.374113     0.315267
Ar     8.221891     7.103315    12.241010     0.053152    -0.093224    -0.336507
Ar     8.290010     8.365787    11.616727    -0.528772     0.431933     0.503612
Ar     7.912758     8.048642    12.883277     0.014529    -0.225936     0.098907
Ar     6.938627     8.087284    13.376414     0.921545     0.656019     1.463614
Ar     8.123353     6.424752    10.857199    -0.273087    -0.083030    -1.640993
Ar     8.451242     9.397843     0.084037     0.253751     0.753317     0.195888
Ar     9.417962     8.022546    13.511685     1.015424    -0.345849    -0.006776
Ar     7.077543     8.905947    14.896426    -0.586539     0.810954     1.018690
Ar     8.544005     7.934801     7.079270     0.057911    -1.912601    -0.636485
Ar     8.930333     9.548809     6.390439     1.351315    -0.627878    -0.056595
Ar     9.486407     9.326890     8.480809     0.106643    -0.083275     0.782556
Ar     8.263013     9.540863     8.499236    -0.021489    -0.026469     1.616042
Ar     6.837907     8.156844    10.063686     1.118102    -0.795054    -0.058988
Ar     7.450051     8.772043     9.230679    -0.733660    -0.949984    -0.174610
Ar     7.797907     8.288212    10.477801    -0.429629     2.041720    -0.806225
Ar     4.122363     8.650567     7.488524    -2.849786    -1.624747    -2.335329
Ar     7.010475     9.253643    10.691532    -0.205631    -0.480763     0.311874
Ar     8.326993     9.482045    10.363469    -0.151688     0.011187    -0.931784
Ar     7.017526     8.320324    11.407774    -0.134839    -1.097119    -1.888674
Ar     6.275784    10.908999    13.030452     0.393947    -1.181205     0.080499
Ar     6.429168     8.237711    14.292555     0.467542    -0.785706     0.955722
Ar     8.644706     9.025177    13.128340     1.375009    -1.345644    -0.929820
Ar     8.635620    10.125436    13.975026     0.364284    -0.081701     0.142855
Ar     7.897819     9.251573    14.037698     1.167643     0.080946    -0.084981
Ar     8.364212    10.586427     6.444033     1.641681    -0.263226    -0.767498
Ar     8.280555    12.388241     7.293959    -0.365781     0.343157    -0.577760
Ar     7.821321    10.589931     7.618608    -0.041668    -0.945727     0.036284
Ar     6.854799    11.357332     7.462196     0.765883    -0.879731    -0.448650
Ar     7.274058    10.301479     8.596849     0.713921    -0.970013    -0.542067
Ar     9.588432    11.824945     7.966656    -0.228597     0.984464    -0.201990
Ar     8.197199    10.618762    10.019643     1.050385    -0.241537     0.220227
Ar     8.807534    12.199753     8.805776     0.506507    -0.568923    -0.611423
Ar     3.448589    14.635953     7.748719    -2.357889     2.717131    -2.417808
Ar     7.299656    11.354091    10.991036    -0.519275    -0.247773     1.309922
Ar     7.921115     9.451372    11.830611    -0.159929    -1.649468     0.344062
Ar     6.955695    11.147217    12.250012     0.080034     0.343972     1.965195
Ar     4.800443    11.931040    11.362321    -0.983394     0.907337    -0.624191
Ar     7.087892    11.955857    13.816518    -0.257174     0.571779     0.898943
Ar     9.629556    11.819440    13.914460     0.080069    -0.244883    -0.297389
Ar     5.820147    12.057234    13.260499    -0.717264     0.258914    -0.478292
Ar    10.947865    10.522539     6.182981     1.987900    -1.882574     1.083695
Ar     7.084024    14.186719     6.063493    -1.617928     0.121580    -0.413184
Ar     6.748135    14.782764     7.610690    -0.836667     1.388754    -0.125156
Ar     6.874003     0.240607    10.624299    -0.147121     0.789303     0.704298
Ar     5.749570    14.165377     8.555671    -0.082663     1.342102    -0.258995
Ar     6.597675    14.566832     9.352919    -1.980275    -0.404812     0.108964
Ar     8.759632    14.211977     9.448203     0.673146     0.364914    -0.779478
Ar     7.114849    13.466822     8.436950    -0.532100     1.041203    -1.438600
Ar     4.649404     0.303712    10.366041    -1.844452     1.665377    -0.291097
Ar     7.075974    14.183645    11.064165    -1.038143     0.343663    -0.276511
Ar     6.838789    13.091331    11.631811    -0.949584     1.499041    -0.531066
Ar     6.785771    14.022339    12.262499    -1.739792     0.367919     0.228624
Ar     6.388291    12.028478    12.119830    -0.746710    -1.045245    -0.108442
Ar     7.623913    12.112675    12.499115     0.046324    -1.732711    -0.162219
Ar     7.233526    10.331654    13.213238    -0.181976    -0.075973    -1.358146
Ar     6.659666    12.641634    12.963807     0.167373     0.792792    -0.200810
Ar    11.413575     5.955158     7.922056     1.356149    -0.730577     0.127035
Ar    11.166377     7.705376     5.769199     1.191150    -0.164580    -0.810999
Ar     9.657967     7.553664     8.043191     0.303005     0.281926    -0.655411
Ar     9.599695     8.517429     6.903000    -0.484763     0.400116    -0.280913
Ar     8.161992     7.009065     8.383374    -0.606541     0.002519    -0.440294
Ar    10.451757     8.771265     8.338882    -0.680489    -0.199403    -0.051610
Ar     9.377637     7.422030     9.668367    -0.394821     0.244455    -0.298397
Ar     8.738235     8.517105     9.269440     0.774115     0.574292     0.169766
Ar     9.042287     8.055451    10.599536     0.551695     0.640644     0.616706
Ar    10.628108     8.554541    10.140245     1.763030     0.981227    -0.155028
Ar     9.655868     6.288480    11.584961     0.561147    -0.710344    -0.096094
Ar     9.665048     8.805149    12.180582     0.992425     0.370729     0.273339
Ar    10.699583     6.743408    13.989568     1.640992     0.008828     1.662495
Ar    10.729992     8.466626    13.537851    -0.349829     1.222679    -0.134290
Ar    10.063156     4.744683    14.258977     0.670285    -1.680596     0.521180
Ar     9.680899     8.963224    14.686398    -1.335532    -0.305982     2.221908
Ar     8.917871     9.402652     7.573369     0.464461    -0.387807    -0.293698
Ar     9.672085     9.920931     7.066966     0.371025    -0.498940    -0.082118
Ar    10.513068     9.144110     6.501667    -0.196264    -0.228046    -1.668259
Ar    10.206340    10.072239     8.086816    -0.029329    -0.263552    -0.323560
Ar     9.817352     8.783082     9.449247    -0.115160     0.273816    -0.212311
Ar    10.861901     9.536303     9.088163     0.344630    -0.326885    -0.958128
Ar    11.555660     8.821900     9.480483     0.976307     0.537185    -0.019718
Ar     9.612749    10.535800     9.899650     0.877919     0.453514    -0.447075
Ar    10.509382     9.991966    10.638749    -0.044749     0.447558    -0.365030
Ar     9.574275    10.684476    11.326835     0.746466     0.676697     0.924081
Ar    10.629977     8.390170    12.478513     0.043173    -1.201281     0.890709
Ar     9.689494     9.987377    12.286056     0.683064    -0.342899    -0.296210
Ar     9.664219     8.987643    13.714024     0.896294     1.234159     0.936898
Ar    10.599753     9.330601    12.784068     0.312982    -0.208195     1.183376
Ar    11.688473    10.404455    14.936078     0.415567     0.303851    -0.186090
Ar     9.306269    10.813524    14.922092    -2.412286     0.813666     0.377925
Ar     9.462837    10.752911     7.693050    -0.698419     0.606885     0.651713
Ar     9.970307    13.123072     6.578351    -0.105684     0.454389     0.380629
Ar    10.516090    11.015435     7.456866     0.391947     0.129252    -0.188452
Ar     9.588149    11.621370     6.677552     0.059182    -0.227785    -0.304004
Ar     8.937319    11.207164     8.756766     0.408708     0.052270    -1.398757
Ar    10.685548    11.695080     8.280946     1.580496    -0.624799    -0.919917
Ar    10.744961    10.444462     9.637996    -0.649873     0.665318     0.479403
Ar    10.026243    11.356552     9.193201     0.819189    -0.371089    -1.144706
Ar     8.928191    11.480285     9.726382     0.492032    -0.225733    -1.165794
Ar    10.654631    12.326146    12.150503    -0.293073     1.323517     1.049444
Ar     9.894443    11.736600    11.582541     0.273755     0.027198    -1.571002
Ar     7.804296    12.717031    11.280847    -1.049858     0.072503    -1.706380
Ar     9.748701     9.953671    13.450959     0.178243    -0.370536     0.941189
Ar    10.780285    12.201998    13.528803     1.919669     0.381741    -0.053308
Ar    11.882220    11.606889    14.940170     1.205710     0.703046    -0.602726
Ar     8.459893    11.270914    13.426232     0.230719    -1.299966     0.475416
Ar     7.623730    13.285305     6.992328    -0.746135    -0.594886    -0.272589
Ar     9.794726    14.048340     7.933917    -0.492141    -0.576879    -0.517837
Ar     9.617866    12.958560     7.541321     1.420759     0.001537     0.508837
Ar     7.783065     0.148869     6.416104    -1.105095     1.481899    -1.312524
Ar     9.844829    12.646724     8.678255     1.263790     0.813411    -1.784537
Ar     9.769217    13.663074     9.211227     0.154957    -0.516722     1.130085
Ar    10.920407    12.726803     8.513266     0.587736    -0.194379    -0.681176
Ar     9.382142    13.588986    10.153997    -0.656321    -0.393965     0.714090
Ar     7.992878    13.497115    10.305010    -0.234629     0.358156    -1.434757
Ar    10.072030     0.671458    11.436892     1.711972     1.191348     0.281098
Ar    10.282345    13.534680    10.882856    -0.626804     0.074099    -1.046700
Ar     7.929622    13.300927    12.191955    -0.393645    -0.261987     0.825595
Ar     8.541005    13.046402    12.998067    -2.014216     0.115379     0.367880
Ar    10.061752     1.815624    11.206733    -0.989601     1.141450    -0.920705
Ar     9.965984    14.935840    12.498830     0.481219     0.749930    -0.042204
Ar     7.182772    13.589344    13.042912    -1.287848    -0.558506     0.796985
Ar    11.830219     5.785712     1.884418     0.325531    -1.227666    -3.917662
Ar    11.562950     8.998815     5.752962    -0.504177    -0.326254    -0.553260
Ar    13.674954     2.336333    10.721472     1.290898    -3.647700     1.879606
Ar    11.163656     7.967479     8.888851    -1.039720     0.412398     0.444583
Ar    10.568198     7.525533     9.780380    -0.976707    -0.523896     0.594950
Ar    13.777360     6.637125     7.249223     0.721382    -1.570693    -1.819909
Ar    12.142813     6.940954     9.859560    -0.521544     0.322280    -0.308171
Ar    11.149190     7.346881    10.742471     0.435950    -0.541043     0.540105
Ar    10.934066     6.580754    12.813025     0.007212     0.236247    -0.143795
Ar    12.895921     7.125110    10.576960     0.824955    -0.263674     0.642681
Ar    12.087045     6.843785    11.203087    -0.158373    -0.328023    -1.450172
Ar    11.120076     5.937854    11.513370     0.663848    -0.634256     0.590060
Ar    10.497410     5.461811    14.951997     0.027833    -1.039041     2.189288
Ar    11.540836     7.519870    13.855810    -0.767221    -0.095071     0.588838
Ar    10.052170     7.825578    14.307560    -1.831631     0.308647     0.172913
Ar    10.668390     9.222729    14.341786     0.618961     1.151155    -0.740353
Ar    10.558869     8.785356     5.229501    -0.481631     0.629028    -0.707957
Ar    10.985664    10.069536     5.098801    -1.455480    -0.182218    -1.322806
Ar    12.260451     9.440849     6.523590     0.208146     0.534330    -0.848453
Ar    10.960855     9.918348     7.111517     0.047892     0.734020    -0.843086
Ar    11.423636     8.755892     7.906999     0.551334     0.162969    -1.571051
Ar    11.803804    10.781401     8.982716    -1.011141    -0.180309     0.353744
Ar    12.902520    10.067366     9.915135     1.531558     1.211690    -0.920569
Ar    11.729596     9.705491    10.003916     0.722217     1.302970     0.156571
Ar    11.590554     8.550822    11.302717    -0.009687    -0.626585     0.197809
Ar    12.563333     9.692834    10.926480     0.508365    -0.677309     0.161659
Ar    11.739566     8.429218    12.960666    -0.443021    -0.470689     0.431153
Ar    10.751937     9.086089    11.748958    -0.383128    -0.649402     0.014910
Ar    11.792635     9.968146    13.910579     0.436628     1.804349    -0.395164
Ar    12.528579    11.333791    12.812256    -0.544565     0.652811     1.348214
Ar    12.619001     9.577992    14.876216     1.371852    -0.340368     0.575299
Ar    11.691339    11.318995    13.903239    -0.586443     0.667538     0.911687
Ar    10.524344    12.071647     7.133704     0.260182     0.680327     2.286899
Ar    12.873310    11.471368     6.259342     1.080222     0.298139    -0.189501
Ar    11.656995    11.829768     7.894313     0.882591     0.418544    -0.316232
Ar    12.132485    12.902277     8.080661     1.442154     0.896631    -0.483659
Ar    10.838050    10.758381     8.672871     0.343363     0.031523    -0.343941
Ar    11.951645    12.117140     8.936352     0.266255    -0.557907    -0.418998
Ar    11.662257    10.929555    10.024684     0.722887    -0.306652    -0.771770
Ar    10.931263    11.849735     9.390568     1.042032     0.187785     0.111967
Ar    10.646164    11.012819    10.602906    -0.260011     1.127202    -1.523750
Ar    10.737668    12.296984    10.472925    -0.744608    -0.323851    -0.191833
Ar    12.273405    11.554997    10.685106     0.635119     0.324392    -1.511358
Ar    11.688377    11.818943    11.771787    -0.011365     0.426412    -1.130870
Ar    10.325407    10.706255    14.593134     0.141354    -0.273620     0.883534
Ar    11.991527    12.138053    13.256988     0.357632     0.873891     0.719814
Ar    12.666394    12.223030    12.018892    -0.034231     0.785436     0.278062
Ar     9.616825    13.967890    13.589798    -0.488796     2.154499     0.149635
Ar    12.917653    12.459101     6.999320     0.923874     0.448365     1.167871
Ar    14.696127    13.199537     8.404891     1.159418    -0.974387    -0.668439
Ar    12.406768    13.659162     7.037359     0.407616     0.912167    -1.241425
Ar    14.613160     0.697198     7.399898     3.125939     1.375993    -1.087509
Ar    10.711765    13.568362     7.466271    -0.728381    -0.951703    -0.774402
Ar    13.260551    13.304102     9.412440     1.532696     0.048479     0.171268
Ar    11.566669    12.734296     9.817364    -0.849533     0.248716     1.951512
Ar    11.534089    14.514750     7.826651     0.239367    -0.246908    -1.543139
Ar     9.830302    12.552039     9.737168    -0.844043    -0.082094     0.034044
Ar    11.482269     0.883979    10.069053     0.234391     0.838572    -0.306612
Ar    12.179408    13.836547    11.273066     0.745707    -0.072525    -0.262888
Ar    10.062537     0.938520    10.304659    -0.230270     2.461039     0.259004
Ar    10.411482    13.715226    12.784289    -0.280712     1.521639     0.074245
Ar    11.148445     0.687918    11.894256    -0.652208     0.595721    -0.271127
Ar    12.198377    13.685253    14.027562     1.335334     0.034652     0.230064
Ar     9.412065     0.578385    13.395257    -1.722297     1.719243     0.251072
Ar    12.346348     8.171514     6.046262    -0.380682     1.427161    -0.825559
Ar    13.312752    10.216853     7.583776    -0.551690     0.613408     0.386168
Ar    12.403036     6.894093     6.656792    -0.641101    -0.681319    -0.043740
Ar    12.419735     8.053793     7.307923     0.909775    -1.230744     0.271794
Ar     0.444135     5.946315     8.221867     1.545778    -0.623303    -0.717650
Ar    14.448140     8.477075     9.410205     0.581727     1.000855     0.141429
Ar     3.417221     5.633774     8.527929     3.408736    -1.209165    -1.232594
Ar    13.508308     9.182977    10.424698     0.181654     1.408910     0.263230
Ar    13.461000     6.967189     9.393767    -0.044837    -0.354018    -1.118060
Ar     0.027517     9.939324    10.560440     0.465123     1.271091     0.006420
Ar    14.516254     8.331773    11.308657     0.201033     0.785860    -0.364686
Ar    14.029873     9.229811    11.476042     1.599899     0.738844    -1.071733
Ar    13.271158     7.021149    11.627549    -0.144844    -0.484969    -0.341298
Ar    13.655493     9.032474    12.463889    -0.149418     1.265246     0.049473
Ar    14.843786     7.895994    13.031521     0.573789     0.857362    -0.666152
Ar    11.722908     8.936430    14.057014    -0.909641     0.020779     1.081512
Ar    13.025419    11.545251     3.412081    -0.164376     1.343528    -2.652463
Ar     0.676528     8.980157     8.534825     1.257768    -1.707097     1.233202
Ar    13.550376     7.991330     7.214555     0.239484    -1.458744    -1.189106
Ar    12.951368    10.812365     8.574848     0.515130     1.425741     1.311523
Ar    13.041860     9.056906     7.539194    -0.381247    -0.207513    -2.644071
Ar    14.546801     7.428439     8.238745     1.054512    -1.309639     0.062651
Ar    13.989841    10.117542     9.865637    -0.460661     1.259291     0.769415
Ar    14.077395    11.235339    10.323658     1.011439     0.408792     0.796548
Ar    13.562604    10.252397    10.805927    -0.568051    -0.638892     0.202162
Ar     1.192567     9.967640    10.115985     0.929370     0.162564    -1.454872
Ar    13.977113     9.845635    13.394743    -0.730063    -0.238468    -0.090058
Ar    13.134794    11.380579    11.897295     0.416223     1.809340     0.308870
Ar    13.242827     9.933945    11.775718     0.807348     0.512863    -0.677754
Ar    12.928077    10.069499    12.846805     0.553239    -1.521515     0.081988
Ar    13.962706     9.975377     2.286340     0.421842     0.234882     2.893582
Ar    13.723032    10.682711     1.166186     0.834324     0.352342     1.509494
Ar    13.084264    10.286796     6.441326     0.122493     0.231223    -0.924708
Ar    13.934644    10.934457     6.076331     0.555030     0.092150    -0.006895
Ar    14.957908    10.896904     8.394631     0.207767    -0.560641    -1.227646
Ar    12.734147    11.778082     8.092767    -0.114344    -0.517439    -0.261217
Ar    13.565217    11.739986     9.531025     1.333036    -0.323181     0.263876
Ar    14.779443    11.487257     9.522984     1.415759    -0.662417    -0.811877
Ar     0.341484    10.493872     9.540635    -0.308507     0.098287    -0.660339
Ar    12.610388    12.343784     9.926349    -0.988528     0.154325     0.259459
Ar     0.617521    11.143940    11.422721     1.995570     0.053587    -0.864267
Ar    12.560897    12.694142    10.980523     0.510913     1.015026    -0.312901
Ar    13.797685    12.208980    11.629837    -1.066955     1.094331    -0.469161
Ar    11.404875    12.860418    11.528886    -0.285213     0.198008    -1.232915
Ar    13.727787    11.845343    12.620934     0.617740     0.810075    -0.211478
Ar    14.577867    12.711519    12.440340     0.070811     0.687368     0.394253
Ar    14.642057    11.139626    12.223086     0.852597    -0.542757    -0.786545
Ar    12.895360    11.778210    13.761051    -0.498975     0.508323    -1.318156
Ar    13.818089    13.479001     6.513758     0.771860     0.553221    -0.485290
Ar    12.590162     0.034928     5.766178    -0.468027     1.022448    -1.026120
Ar    14.865018    11.928477     7.683100     0.558490     0.857944     0.931556
Ar     0.988407     1.095476    11.010485     2.325041     1.816850     1.933454
Ar    14.221804    11.828768     8.513580     1.526513    -0.942523    -0.610161
Ar    13.559322    14.373840    11.677972    -0.151348     0.984479     0.066063
Ar     1.152893    11.091712     9.529935     1.670734    -0.938831    -0.069329
Ar    12.172381    14.973894    11.258515    -0.937831     0.142048     0.550573
Ar    12.550589    13.400146    10.149002    -0.442398     0.333166    -0.302837
Ar    13.564378    12.641150    10.292604    -1.465934    -0.350579     1.011225
Ar    13.317613    13.003257    12.276221    -0.256596    -0.270308     0.126032
Ar    13.260836    14.565005    12.977653     0.406173     1.807838     0.192185
Ar    13.724871    12.687684    13.259889     0.122890     0.962658     2.013668
Ar     2.006736    12.748204    14.342042     2.475945    -0.766616     1.318532
Ar    13.430014    13.331899    14.001635     0.557624    -0.378418     1.380158
Ar    13.656032    14.397770    14.280763     0.377712    -0.215904    -0.335412
