256
Comments for frame 301
Ar     7.783807     5.953761     8.902660     0.823559    -0.940422     1.159634
Ar    10.167467     6.757887     6.414426     1.717645    -0.615009    -0.333216
Ar     9.405045     7.420676     7.216559     1.840612     0.644910    -0.216791
Ar     8.533851     7.155193     8.383586     0.918251    -0.354141     0.986473
Ar     9.228536     6.908320     9.741357     0.397433     0.295952     1.027510
Ar     8.874194     9.018462     8.829007     1.147901     0.257344    -0.537283
Ar     9.319424     7.931069     8.619581     0.863165    -0.149877     0.493106
Ar     8.517335     7.875170     9.740449     1.362106     0.125459    -0.021005
Ar     9.980083     7.577404     9.706293     2.424604    -0.331406    -0.968004
Ar     8.637636     8.637331    10.464455     0.046684    -0.540790     0.722074
Ar     9.259289     8.099724    12.782709     1.151324     0.338725     0.436956
Ar     8.539696     8.842260    13.061879     1.804059    -0.552032    -0.008833
Ar     7.760502     7.831289    11.263151     1.040417     1.138698    -0.853451
Ar     9.159886     8.398686    14.232341     0.321584     0.824301     0.926530
Ar     9.255449     8.633744     0.334573    -0.442160     0.051879     0.481372
Ar     8.176082     7.435623    13.882405     0.692045    -0.181224     0.314494
Ar     8.487265    11.300792     6.885773     0.804374     0.764064    -0.885289
Ar     9.267578    10.557743     7.359125     0.245623     0.399028     0.854339
Ar     8.957458     8.798945     7.768197     0.025182     0.426098    -0.274002
Ar     7.799197     7.951127     8.474926     0.475934    -0.474383    -0.377427
Ar     7.849466     8.782158     9.685501     1.727383    -0.388436     0.131006
Ar     7.810800     9.675901     8.824632     0.937093    -0.167000     0.662491
Ar     8.224824     9.736072    10.430204     0.343548     1.128080    -0.740014
Ar     7.815585    10.554046     9.710680     0.490576     0.239316    -0.910801
Ar     7.715694     9.500763    11.289161     0.084155    -0.986717    -0.021858
Ar     8.417173    10.387861    11.361773     0.236548    -0.694376     0.065473
Ar     8.482515     9.389821    12.073216     1.314419     0.676208     1.624917
Ar     7.751312    10.231109    12.308996     0.498388     0.662935     1.137792
Ar     6.985722     9.717356    13.011581     0.050229     1.628636     0.604943
Ar     8.269192     9.868748    13.240399     0.313768    -0.422482     1.013059
Ar     8.133866     9.228048    13.990715     0.904401     0.289898     0.902368
Ar     7.752663    10.350304    14.166508     0.899812     0.304293    -0.626339
Ar     8.967879    12.072301     6.002380     0.297443    -0.963606    -0.781881
Ar     9.531871    13.840749     6.181892     0.582908     1.061624     0.393634
Ar     8.493724    10.686158     8.055116     0.200239    -1.505762    -0.023903
Ar     9.072357    11.551702     7.842158    -0.889301    -1.109165    -0.135971
Ar     7.098617    10.928934     8.923953    -0.306171    -0.183448    -0.688651
Ar     8.209757    11.388239     8.731326     0.851738     0.481335    -0.213705
Ar     8.762600    10.406846     9.796124    -0.548789     0.007631     0.718109
Ar     7.943639    11.815149     9.677579    -0.072642    -0.348501     0.248606
Ar     7.399454    10.841641    11.480576     0.350102     0.141862     0.608318
Ar     8.215583    11.158109    10.528838     0.651125    -0.289746    -0.488992
Ar     8.270291    11.356291    12.018782     0.218540     0.608039     0.164179
Ar     7.358278    11.811234    12.002706    -0.709730    -0.354970     0.789072
Ar     7.329881    10.784640    13.055931     0.554969     1.485921    -0.915023
Ar     8.555620    12.233848    12.510607     0.708891     1.215440    -0.473285
Ar     7.136415    11.374269    13.958742    -0.529743    -1.199592    -0.785657
Ar     6.300149    10.994733    13.316246    -0.987169    -0.015636     0.198796
Ar     8.433301    12.277043     7.199178     1.457168    -0.067779    -1.582940
Ar     8.500469    13.260046     6.549039     1.281978     1.279933    -0.206909
Ar     8.034942    13.402854     7.573461     0.578960     0.320915     0.101939
Ar     5.737324    13.254928     6.635643    -1.757671    -0.049214    -1.126085
Ar     7.772473    12.154933     8.141928     0.757145     0.726659     0.264121
Ar     8.596783    12.460866     9.132032     1.195000    -1.044344    -0.081331
Ar     8.159044    12.812477    10.060794    -1.183406    -0.315677    -0.390343
Ar     7.025123    12.377365     9.091506    -0.213864    -0.665754    -1.527423
Ar     7.575372    12.084114    10.593977    -0.143760    -0.464779     0.675796
Ar     8.416785    14.586378    10.477333     0.353614     0.372005     0.430221
Ar     8.774807    11.999883    11.050299     1.224423    -0.176385     1.909616
Ar     8.680266     0.594161    10.823605     0.966239     0.033062    -0.799288
Ar     7.967864    12.761231    11.855288    -0.392228    -0.973913     0.126028
Ar     8.712181    14.432408    11.735691     0.983868    -0.137175    -1.181727
Ar     7.920752    12.890317    12.965936     0.696968    -0.207347    -1.103889
Ar     9.136454    14.570036    12.823534     0.857151    -0.107847    -1.960173
Ar    11.235235     6.963459     7.299665     1.338624     0.066613     0.926797
Ar    10.370734     8.240997     7.045825     0.677223     0.309911    -1.204501
Ar    10.958079     5.717007     9.050052     0.432075    -0.429596    -0.477884
Ar    10.236128     8.037882     7.978748    -0.949401    -0.515582    -1.985782
Ar     9.761361     7.047552     8.375475     0.946062    -0.568158    -0.495156
Ar    10.399230     6.766873     9.094909     0.036937    -0.297792     0.408816
Ar    10.340325     6.919549    10.698122     0.659346     1.387496     0.255140
Ar     9.399096     8.691938     9.707442    -1.397753     0.030940    -0.666149
Ar     9.283011     7.638801    10.616549    -0.987296    -0.229022    -0.534828
Ar     9.237585     8.954718    11.487116     0.143925     2.189060     0.097679
Ar    10.081958     8.876949    12.389314     1.655605     0.415978    -0.511219
Ar     9.284284     9.548822    12.711777    -0.252695     0.246145     1.013145
Ar    10.127248     8.216339    13.545270    -0.104844     1.731586     0.851461
Ar    10.320315     9.403016    13.393399     0.089692     2.445080     0.766496
Ar    11.527935     8.837487     2.328598     0.931281     1.060758     2.295362
Ar     8.894068     9.697356    14.855265    -0.870648     0.432299    -0.640488
Ar     9.897464     9.233536     6.971589    -0.316885    -0.356862    -0.301254
Ar    10.354637    10.406327     7.176647     1.636801     1.263466     0.492350
Ar    10.251479     9.620036     7.971525    -1.052032    -0.329694     0.940759
Ar     9.401404     9.935811     8.456246    -0.091215    -1.206540     0.851300
Ar     9.986613     8.837828     8.887778    -0.311561    -0.821515    -0.199151
Ar    10.341370    10.385606     8.912099     0.703510     0.907740     2.483524
Ar    10.466267     8.972962     9.813275    -1.480069     0.551567    -1.947438
Ar     9.656734     9.732717     9.551534     2.349785    -0.380735    -0.158536
Ar     9.636557     9.781374    10.748614     0.167763     0.063867    -0.156433
Ar    10.750669     9.739826    10.593475     0.930900     0.184204    -0.921703
Ar    10.031321     9.968067    11.851280    -0.562938     0.259507    -1.237625
Ar     9.246858    10.444104    12.171872    -0.354360    -0.900820     0.564856
Ar     9.207715     9.411891    13.700974    -0.193902     0.423110     0.073039
Ar    10.971454    10.229649    12.956090     0.262780     0.943259    -1.842671
Ar    10.021932     9.136248    14.522072    -0.096933     0.604848    -1.503217
Ar     9.690241    11.503580    14.302802     1.216182     0.322969     0.361903
Ar     9.949893    11.457633     7.087916     0.456466     0.874454    -0.773073
Ar    10.767290    11.432866     7.749953     0.721222     1.846702     1.385595
Ar     9.892172    10.884939     8.119422     0.964980     0.165552    -1.069030
Ar     9.655117    12.527696     6.765145     0.391321    -0.465094    -1.134142
Ar     9.415298    11.052457     9.316839     0.928851     0.034101    -0.465165
Ar     9.338581    11.988142     8.873186     0.936628    -0.067907    -1.077168
Ar    10.222975    10.727473     9.987517     0.196771    -0.142662     0.760232
Ar     9.011963    11.792120    10.063537     2.227609    -1.154682     0.457909
Ar     9.203017    11.059542    11.116896    -0.286944     0.621617     0.602269
Ar    10.114502    11.840137     9.590981     0.911869     0.286282    -0.753973
Ar    10.547865    11.394181    10.888497     0.454132     0.453532    -0.688842
Ar     9.330938    11.454322    12.180343     1.022115    -0.444111     1.015367
Ar     8.552224    11.074697    13.102843    -0.048992     0.206550    -0.346586
Ar    10.220401    11.216646    12.910860     1.071506    -0.544263    -0.211681
Ar    10.540524    10.043110    14.673902    -0.113556    -1.787029    -0.354247
Ar     8.348329    12.059262    13.534133    -0.002614     0.331105     0.079644
Ar    10.698176    12.367751     7.201012    -1.078678    -0.498465     0.960276
Ar    10.756635    13.350097     6.484303    -0.540589     0.869362    -0.194244
Ar     9.921287    12.291837     7.917337     0.710200    -0.219610     0.757703
Ar     9.832455    13.462377     7.388934    -0.210865     0.166553     0.154104
Ar     8.960115    12.768334     8.077256     0.227456    -2.072191    -1.287835
Ar     9.315132    13.600337     8.502633    -0.136901     0.995087    -0.342818
Ar     9.444238    12.682062     9.861079    -0.597138     0.831081    -0.684775
Ar     8.747090    13.630429     9.672972    -0.757060    -1.015475    -0.465028
Ar     9.793486    11.972703    10.708915    -0.203382    -1.280387     0.291373
Ar     9.641122    12.882076    11.295687     0.240298    -1.252562    -0.612627
Ar    10.017813    12.179745    11.963516     1.302381    -0.636567    -0.474816
Ar     8.320415    13.486287    11.090204    -0.837053     1.325767     0.283588
Ar     8.847787    13.185682    12.227377     0.561049     0.721835     0.947886
Ar     9.383005    13.924756    13.656248    -0.547218     0.188822    -0.725349
Ar    10.601002    13.196381    13.538033     0.009765    -1.385541     0.624619
Ar     9.644227    12.253025    12.836325    -0.210997     0.636098    -0.631806
Ar    11.729198     5.993543     7.681099     0.734434    -0.650892    -0.220346
Ar    12.008877     7.969723     8.270768    -0.084502    -1.030061    -0.219236
Ar    11.307562     6.754448     8.636527    -0.470227     0.957437     0.526013
Ar    11.123923     8.549044     8.132364    -0.465416    -0.880035    -1.593169
Ar    11.710643     6.772478     9.702684     0.305288     0.153879    -0.209011
Ar    11.521544     8.362135     9.311694    -0.426800     1.077305     1.078069
Ar    11.143166     8.217553    10.350468    -1.592685    -0.208517    -0.013744
Ar    10.588161     7.959064     8.929485    -0.075640    -0.901746     0.652478
Ar     9.910763     8.487991    10.563234    -0.349558     0.722333     0.904042
Ar    11.545889     9.054813    10.800111     0.615967    -0.610767    -0.509202
Ar     9.740714     7.844835    11.682360     0.804566    -0.081018    -0.001190
Ar    10.815721     7.860763    11.425072    -1.152174    -0.007524     1.032176
Ar    10.790638     8.192107    12.746409    -0.035715     0.290868    -0.636916
Ar    11.943820     8.594730    11.898456    -0.452672     0.680100    -2.652920
Ar    12.204507     8.121799    13.081310     0.826561     0.799418     0.130173
Ar    11.461362     8.878823    13.536278    -0.659348     0.529763    -0.884531
Ar    11.447242     7.901626     7.181179     0.111412    -1.244139     1.823271
Ar    10.930889     9.293800     6.924191    -0.180490    -1.703112    -0.427126
Ar    11.690187     9.523027     8.052148     0.139726     0.917044    -0.639457
Ar    11.013480    10.500434     8.068119     0.832115    -0.074212    -0.078098
Ar    10.973237     9.516406     8.970747    -0.326071     0.260161     0.555799
Ar    12.054410    10.178634     9.117089    -0.293972     1.288499    -0.429991
Ar    12.140862     9.166190     9.667405    -1.144747     1.078588     0.749730
Ar    12.116713    10.118364    10.236345    -0.060246     0.207935    -0.865312
Ar    10.468111     8.876970    11.363944    -0.040098     0.136720     0.834334
Ar    12.824598    10.036027    11.025219     0.556538     0.384471    -0.089734
Ar    11.934615     9.800619    11.535638     0.566016     1.753678    -0.366014
Ar    11.058901    10.295410    11.786845     1.009429     0.236687    -0.995761
Ar    11.004998     9.399166    12.273126    -0.859237     0.416916    -0.567685
Ar    12.761838    10.460698    12.149187    -0.279223    -0.701951    -0.899396
Ar    12.014213     9.805532    12.681080     0.041440     0.651499     0.114030
Ar    11.453731     9.911918    13.877382     0.479976     1.169525     0.447149
Ar    11.393377    10.767780     7.089384     0.501686    -0.007445     0.051810
Ar    11.634985    12.109829     7.987892     0.889896     0.026240     1.551942
Ar    11.970439    11.059569     8.159417    -1.121886     0.070801    -0.496668
Ar    11.072950    11.496721     8.912215    -0.931905    -0.187462    -0.279403
Ar    11.268541    10.634255     9.606841     2.084399    -0.048873     0.482229
Ar    12.186377    11.624976     9.046997     1.419832    -0.149312    -2.569511
Ar    12.220518    11.217603    10.013801    -0.371944     0.514638     0.456007
Ar    11.312810    11.935953     9.875641     0.311933     0.994273    -0.449452
Ar    11.335073    10.792058    10.693558    -0.143069    -1.482529    -0.410481
Ar    12.108412    12.140661    10.918788     0.666968    -0.050897    -0.385021
Ar    12.247897    11.007770    11.181130     0.135392    -0.975073    -0.203856
Ar    11.083226    12.236965    11.127690     0.317801    -0.238468     0.300662
Ar    11.316326    11.233846    12.380669    -0.839118    -0.324447    -0.196953
Ar    11.552688    11.723796    13.215271     0.213996     1.858107     1.064559
Ar    11.058460    10.881674    13.807757    -1.161889     0.001157     0.237880
Ar    10.674882    11.986826    13.818995     0.671560    -1.138409    -0.056140
Ar    11.565186    13.170489     7.517969     1.025754     0.206594     0.191295
Ar    11.095537    14.203927     7.576835    -1.482607     0.188090    -0.609825
Ar    10.555899    13.386285     8.241277    -0.973237    -1.042610    -0.954175
Ar     9.971700    14.581925     8.464896    -0.946874     0.269551     0.376050
Ar    10.522369    12.448875     8.727052    -0.403338     0.491895     0.216608
Ar    11.340754    14.229294     8.729239     0.559679     1.138879     1.266246
Ar    11.743100    13.079376    10.294582     0.010772     0.568322    -0.237699
Ar     9.975353    13.533805     9.286158    -0.976407    -0.387831     0.982329
Ar    10.386865    12.714908    10.279741     0.785132     0.129753     0.145622
Ar    12.049686    14.089105     9.610651     1.840291    -0.529023    -0.369502
Ar    11.969146    12.480968    12.366219     1.072106     0.246549     0.890803
Ar    11.492676    13.253713    11.823347     0.912756    -0.154235    -0.103151
Ar    10.843952    12.380157    12.722141    -0.070833    -0.420374     0.903820
Ar    11.599250    13.165019    13.231806    -1.226293    -0.000896     0.613418
Ar    11.642226    12.017730    14.350225    -1.027153    -0.978952     0.603129
Ar     9.567771    12.729471    14.325818    -0.690597    -1.914772    -0.227315
Ar    12.348661     6.773653     8.118061    -0.418926    -0.409629     0.829670
Ar    13.774027     9.624267     7.645890    -0.530348     0.310597     1.562359
Ar    13.596683     8.601973     7.220004     0.842178     0.122395     0.257440
Ar    13.169556     8.006332     8.216977     0.754025     0.165206    -0.626825
Ar    13.297359     7.471794     9.572762    -0.732816     0.855133    -0.653599
Ar    14.896560     8.607499     9.159422     2.261610    -0.175233     0.197518
Ar    13.556950     6.822039    10.512546    -0.456461     0.904569     0.606051
Ar    13.185659     8.626227     9.837970     0.712589    -0.732247     0.356480
Ar    12.152972     8.149428     9.998350     0.767464     0.027513    -0.184315
Ar    14.247031     8.445511    10.142305    -0.047355    -0.215927     0.325949
Ar    13.021265     7.780126    10.837980    -0.780891    -0.485904     0.182053
Ar    11.955075     7.887775    11.145626    -0.708233    -0.360893    -0.275816
Ar    12.311932     7.451987    12.090093     0.289541     0.401391    -0.731667
Ar    12.978519     8.273406    11.711620     0.671745    -0.451948    -0.091998
Ar    14.181692     5.695588     1.695491     0.499584    -1.207028     2.115230
Ar    13.395705     7.220651    11.931559    -0.233849    -0.707005    -1.532071
Ar    12.446176     8.805570     7.627633     0.245338     0.612631     0.470491
Ar    11.866150     8.841092     6.743221    -1.063870    -0.229700     0.482555
Ar    14.079378     8.573940     8.361645    -0.494326    -0.142392    -0.591199
Ar    12.605279     9.930299     7.537316    -0.062876     0.635743    -0.691916
Ar    12.612775     8.974319     8.726996    -0.677949    -0.827716     0.835759
Ar    13.344375    10.178452     8.677472    -0.771007     0.406013    -1.061280
Ar    14.021485     9.268000     9.263259    -0.792334    -0.318407    -0.045449
Ar    13.004294     9.724216     9.847452     0.281294    -0.070777    -0.102562
Ar    12.665064     8.777429    10.701821    -2.057551     1.089434    -0.662100
Ar    13.639655     9.395487    10.686468    -0.006347    -0.537824     0.332859
Ar    14.094087     8.350591    11.319824     0.609237    -0.782499     0.507157
Ar    12.900900     9.300207    11.955262     0.984378     0.320273     0.062265
Ar    13.226915     8.080607    12.716948    -0.830440    -1.948105    -0.418813
Ar    13.924881     9.013489    13.975661     0.086535    -0.786318     1.318437
Ar     1.703530     8.976029     1.657471     2.345474    -0.171980     2.301761
Ar    11.870872    10.719166    13.125662    -1.796359     0.060378    -1.399618
Ar    12.317278    11.666930     7.162703     0.334285     1.565349     0.355480
Ar    12.556899    12.668115     6.774665    -1.092284     0.735251     0.918417
Ar    13.825564    11.337182     8.068266     1.355711     1.392537    -0.344495
Ar    12.857097    12.071668     8.384780    -0.500259    -1.143311    -0.053653
Ar    13.225864    11.411222     9.299552     1.162199     0.990867     0.115523
Ar    13.578369    12.541165     9.284268    -0.364498     0.170857     0.114028
Ar    14.140755    10.747111     9.758655    -0.534416    -0.674904    -0.893152
Ar    12.443813    12.385438     9.920438     0.180283    -0.173005    -0.255342
Ar    13.119523    11.431031    10.480593     0.159612     0.485544    -0.126143
Ar    13.809304    12.149767    10.221967     0.188283     1.180792    -0.839960
Ar    14.233536     8.738619    12.552305    -0.631562    -1.685114    -0.109852
Ar    12.993254    11.863168    11.497587    -0.661858    -0.106058    -0.245361
Ar    12.401246    11.501965    12.338084     0.744910     1.089947    -2.438617
Ar    13.510588    12.033471    12.453688    -0.017377     0.003615    -0.931546
Ar    13.985358    11.188464    11.834805    -2.034311     0.858310    -1.183548
Ar    13.311142    10.981919    12.791582    -1.068227    -0.032222    -0.034568
Ar    11.571328    12.705893     8.881589    -1.594804    -1.788033     0.440080
Ar    12.777484    13.019835     7.767028    -1.055119     0.493069    -1.094135
Ar    13.729232    12.312793     7.542109    -0.801451    -0.003289     0.081004
Ar    12.179933    13.424319     8.443828    -0.190830    -0.811636    -0.100072
Ar    11.072618    13.473146     9.453131    -1.491568     0.317896    -0.458836
Ar    11.694059     0.393962     9.016378    -0.420454     0.006933    -0.798166
Ar    14.737722    12.258596     9.732171    -0.845650    -0.858705    -0.318861
Ar    12.721792     0.011909     9.352414    -1.141011     1.425887     0.954798
Ar    12.892022    12.981370    11.025926     0.550000     0.236396     0.808761
Ar    12.923304    14.524035    10.344412    -0.124907     0.472620    -1.091360
Ar    13.993663    12.397323    11.423994     0.235028    -0.026394     0.560686
Ar    12.837999    13.122187    12.422654     0.129664     0.766674     0.190132
Ar    12.299486    12.443980    13.595841    -0.878477    -0.478084     0.493040
Ar    13.299316    12.173488    13.570447    -1.509636    -0.744123     0.041163
Ar    12.737293    11.369576    13.598040    -0.648930    -0.229667     0.220791
Ar    12.581657    13.678842    13.355168     0.573395    -0.511768    -0.917723
